[board]
type=System
children=cache_hierarchy clk_domain dvfs_handler memory processor workload
auto_unlink_shared_backstore=false
cache_line_size=64
eventq_index=0
exit_on_work_items=true
external_memory_ranges=
init_param=0
m5ops_base=4294901760
mem_mode=atomic_noncaching
mem_ranges=0:3221225472
memories=board.memory.mem_ctrl0.dram board.memory.mem_ctrl1.dram
mmap_using_noreserve=false
multi_thread=false
num_work_ids=16
readfile=
redirect_paths=
shadow_rom_ranges=
shared_backstore=
symbolfile=
thermal_components=
thermal_model=Null
work_begin_ckpt_count=0
work_begin_cpu_id_exit=-1
work_begin_exit_count=0
work_cpus_ckpt_count=0
work_end_ckpt_count=0
work_end_exit_count=0
work_item_id=-1
workload=board.workload
system_port=board.cache_hierarchy.membus.cpu_side_ports[0]

[board.cache_hierarchy]
type=SubSystem
children=dptw_caches iptw_caches l1dcaches l1icaches l2buses l2caches llcXbar llcache membus
eventq_index=0
thermal_domain=Null

[board.cache_hierarchy.dptw_caches]
type=Cache
children=power_state replacement_policy tags
addr_ranges=0:18446744073709551615
assoc=8
clk_domain=board.clk_domain
clusivity=mostly_incl
compressor=Null
data_latency=1
demand_mshr_reserve=1
eventq_index=0
is_read_only=false
max_miss_count=0
move_contractions=true
mshrs=8
partitioning_manager=Null
power_model=
power_state=board.cache_hierarchy.dptw_caches.power_state
prefetcher=Null
replace_expansions=true
replacement_policy=board.cache_hierarchy.dptw_caches.replacement_policy
response_latency=1
sequential_access=false
size=8192
system=board
tag_latency=1
tags=board.cache_hierarchy.dptw_caches.tags
tgts_per_mshr=8
warmup_percentage=0
write_allocator=Null
write_buffers=8
writeback_clean=true
cpu_side=board.processor.start.core.mmu.dtb.walker.port
mem_side=board.cache_hierarchy.l2buses.cpu_side_ports[3]

[board.cache_hierarchy.dptw_caches.power_state]
type=PowerState
clk_gate_bins=20
clk_gate_max=1000000000000
clk_gate_min=1000
default_state=UNDEFINED
eventq_index=0
leaders=
possible_states=

[board.cache_hierarchy.dptw_caches.replacement_policy]
type=LRURP
eventq_index=0

[board.cache_hierarchy.dptw_caches.tags]
type=BaseSetAssoc
children=indexing_policy power_state
assoc=8
block_size=64
clk_domain=board.clk_domain
entry_size=64
eventq_index=0
indexing_policy=board.cache_hierarchy.dptw_caches.tags.indexing_policy
partitioning_manager=Null
power_model=
power_state=board.cache_hierarchy.dptw_caches.tags.power_state
replacement_policy=board.cache_hierarchy.dptw_caches.replacement_policy
sequential_access=false
size=8192
system=board
tag_latency=1
warmup_percentage=0

[board.cache_hierarchy.dptw_caches.tags.indexing_policy]
type=TaggedSetAssociative
assoc=8
entry_size=64
eventq_index=0
size=8192

[board.cache_hierarchy.dptw_caches.tags.power_state]
type=PowerState
clk_gate_bins=20
clk_gate_max=1000000000000
clk_gate_min=1000
default_state=UNDEFINED
eventq_index=0
leaders=
possible_states=

[board.cache_hierarchy.iptw_caches]
type=Cache
children=power_state replacement_policy tags
addr_ranges=0:18446744073709551615
assoc=8
clk_domain=board.clk_domain
clusivity=mostly_incl
compressor=Null
data_latency=1
demand_mshr_reserve=1
eventq_index=0
is_read_only=false
max_miss_count=0
move_contractions=true
mshrs=8
partitioning_manager=Null
power_model=
power_state=board.cache_hierarchy.iptw_caches.power_state
prefetcher=Null
replace_expansions=true
replacement_policy=board.cache_hierarchy.iptw_caches.replacement_policy
response_latency=1
sequential_access=false
size=8192
system=board
tag_latency=1
tags=board.cache_hierarchy.iptw_caches.tags
tgts_per_mshr=8
warmup_percentage=0
write_allocator=Null
write_buffers=8
writeback_clean=true
cpu_side=board.processor.start.core.mmu.itb.walker.port
mem_side=board.cache_hierarchy.l2buses.cpu_side_ports[2]

[board.cache_hierarchy.iptw_caches.power_state]
type=PowerState
clk_gate_bins=20
clk_gate_max=1000000000000
clk_gate_min=1000
default_state=UNDEFINED
eventq_index=0
leaders=
possible_states=

[board.cache_hierarchy.iptw_caches.replacement_policy]
type=LRURP
eventq_index=0

[board.cache_hierarchy.iptw_caches.tags]
type=BaseSetAssoc
children=indexing_policy power_state
assoc=8
block_size=64
clk_domain=board.clk_domain
entry_size=64
eventq_index=0
indexing_policy=board.cache_hierarchy.iptw_caches.tags.indexing_policy
partitioning_manager=Null
power_model=
power_state=board.cache_hierarchy.iptw_caches.tags.power_state
replacement_policy=board.cache_hierarchy.iptw_caches.replacement_policy
sequential_access=false
size=8192
system=board
tag_latency=1
warmup_percentage=0

[board.cache_hierarchy.iptw_caches.tags.indexing_policy]
type=TaggedSetAssociative
assoc=8
entry_size=64
eventq_index=0
size=8192

[board.cache_hierarchy.iptw_caches.tags.power_state]
type=PowerState
clk_gate_bins=20
clk_gate_max=1000000000000
clk_gate_min=1000
default_state=UNDEFINED
eventq_index=0
leaders=
possible_states=

[board.cache_hierarchy.l1dcaches]
type=Cache
children=power_state prefetcher replacement_policy tags
addr_ranges=0:18446744073709551615
assoc=8
clk_domain=board.clk_domain
clusivity=mostly_incl
compressor=Null
data_latency=4
demand_mshr_reserve=8.0
eventq_index=0
is_read_only=false
max_miss_count=0
move_contractions=true
mshrs=16
partitioning_manager=Null
power_model=
power_state=board.cache_hierarchy.l1dcaches.power_state
prefetcher=board.cache_hierarchy.l1dcaches.prefetcher
replace_expansions=true
replacement_policy=board.cache_hierarchy.l1dcaches.replacement_policy
response_latency=1
sequential_access=false
size=32768
system=board
tag_latency=4
tags=board.cache_hierarchy.l1dcaches.tags
tgts_per_mshr=16
warmup_percentage=0
write_allocator=Null
write_buffers=64
writeback_clean=false
cpu_side=board.processor.start.core.dcache_port
mem_side=board.cache_hierarchy.l2buses.cpu_side_ports[1]

[board.cache_hierarchy.l1dcaches.power_state]
type=PowerState
clk_gate_bins=20
clk_gate_max=1000000000000
clk_gate_min=1000
default_state=UNDEFINED
eventq_index=0
leaders=
possible_states=

[board.cache_hierarchy.l1dcaches.prefetcher]
type=StridePrefetcher
children=power_state table_indexing_policy table_replacement_policy
block_size=64
cache_snoop=false
clk_domain=board.clk_domain
confidence_counter_bits=3
confidence_threshold=50
degree=3
distance=0
eventq_index=0
initial_confidence=4
latency=1
max_prefetch_requests_with_pending_translation=32
on_data=true
on_inst=false
on_miss=false
on_read=true
on_write=true
page_bytes=4096
power_model=
power_state=board.cache_hierarchy.l1dcaches.prefetcher.power_state
prefetch_on_access=false
prefetch_on_pf_hit=true
queue_filter=true
queue_size=32
queue_squash=true
sys=board
table_assoc=4
table_entries=64
table_indexing_policy=board.cache_hierarchy.l1dcaches.prefetcher.table_indexing_policy
table_replacement_policy=board.cache_hierarchy.l1dcaches.prefetcher.table_replacement_policy
tag_prefetch=true
throttle_control_percentage=0
use_cache_line_address=true
use_requestor_id=true
use_virtual_addresses=false

[board.cache_hierarchy.l1dcaches.prefetcher.power_state]
type=PowerState
clk_gate_bins=20
clk_gate_max=1000000000000
clk_gate_min=1000
default_state=UNDEFINED
eventq_index=0
leaders=
possible_states=

[board.cache_hierarchy.l1dcaches.prefetcher.table_indexing_policy]
type=StridePrefetcherHashedSetAssociative
assoc=4
entry_size=1
eventq_index=0
size=64

[board.cache_hierarchy.l1dcaches.prefetcher.table_replacement_policy]
type=RandomRP
eventq_index=0

[board.cache_hierarchy.l1dcaches.replacement_policy]
type=LRURP
eventq_index=0

[board.cache_hierarchy.l1dcaches.tags]
type=BaseSetAssoc
children=indexing_policy power_state
assoc=8
block_size=64
clk_domain=board.clk_domain
entry_size=64
eventq_index=0
indexing_policy=board.cache_hierarchy.l1dcaches.tags.indexing_policy
partitioning_manager=Null
power_model=
power_state=board.cache_hierarchy.l1dcaches.tags.power_state
replacement_policy=board.cache_hierarchy.l1dcaches.replacement_policy
sequential_access=false
size=32768
system=board
tag_latency=4
warmup_percentage=0

[board.cache_hierarchy.l1dcaches.tags.indexing_policy]
type=TaggedSetAssociative
assoc=8
entry_size=64
eventq_index=0
size=32768

[board.cache_hierarchy.l1dcaches.tags.power_state]
type=PowerState
clk_gate_bins=20
clk_gate_max=1000000000000
clk_gate_min=1000
default_state=UNDEFINED
eventq_index=0
leaders=
possible_states=

[board.cache_hierarchy.l1icaches]
type=Cache
children=power_state replacement_policy tags
addr_ranges=0:18446744073709551615
assoc=8
clk_domain=board.clk_domain
clusivity=mostly_incl
compressor=Null
data_latency=4
demand_mshr_reserve=4.0
eventq_index=0
is_read_only=false
max_miss_count=0
move_contractions=true
mshrs=8
partitioning_manager=Null
power_model=
power_state=board.cache_hierarchy.l1icaches.power_state
prefetcher=Null
replace_expansions=true
replacement_policy=board.cache_hierarchy.l1icaches.replacement_policy
response_latency=1
sequential_access=false
size=32768
system=board
tag_latency=4
tags=board.cache_hierarchy.l1icaches.tags
tgts_per_mshr=16
warmup_percentage=0
write_allocator=Null
write_buffers=8
writeback_clean=false
cpu_side=board.processor.start.core.icache_port
mem_side=board.cache_hierarchy.l2buses.cpu_side_ports[0]

[board.cache_hierarchy.l1icaches.power_state]
type=PowerState
clk_gate_bins=20
clk_gate_max=1000000000000
clk_gate_min=1000
default_state=UNDEFINED
eventq_index=0
leaders=
possible_states=

[board.cache_hierarchy.l1icaches.replacement_policy]
type=LRURP
eventq_index=0

[board.cache_hierarchy.l1icaches.tags]
type=BaseSetAssoc
children=indexing_policy power_state
assoc=8
block_size=64
clk_domain=board.clk_domain
entry_size=64
eventq_index=0
indexing_policy=board.cache_hierarchy.l1icaches.tags.indexing_policy
partitioning_manager=Null
power_model=
power_state=board.cache_hierarchy.l1icaches.tags.power_state
replacement_policy=board.cache_hierarchy.l1icaches.replacement_policy
sequential_access=false
size=32768
system=board
tag_latency=4
warmup_percentage=0

[board.cache_hierarchy.l1icaches.tags.indexing_policy]
type=TaggedSetAssociative
assoc=8
entry_size=64
eventq_index=0
size=32768

[board.cache_hierarchy.l1icaches.tags.power_state]
type=PowerState
clk_gate_bins=20
clk_gate_max=1000000000000
clk_gate_min=1000
default_state=UNDEFINED
eventq_index=0
leaders=
possible_states=

[board.cache_hierarchy.l2buses]
type=CoherentXBar
children=power_state snoop_filter
clk_domain=board.clk_domain
eventq_index=0
forward_latency=0
frontend_latency=1
header_latency=1
max_outstanding_snoops=512
max_routing_table_size=512
point_of_coherency=false
point_of_unification=true
power_model=
power_state=board.cache_hierarchy.l2buses.power_state
response_latency=1
snoop_filter=board.cache_hierarchy.l2buses.snoop_filter
snoop_response_latency=1
system=board
use_default_range=false
width=192
cpu_side_ports=board.cache_hierarchy.l1icaches.mem_side board.cache_hierarchy.l1dcaches.mem_side board.cache_hierarchy.iptw_caches.mem_side board.cache_hierarchy.dptw_caches.mem_side
mem_side_ports=board.cache_hierarchy.l2caches.cpu_side

[board.cache_hierarchy.l2buses.power_state]
type=PowerState
clk_gate_bins=20
clk_gate_max=1000000000000
clk_gate_min=1000
default_state=UNDEFINED
eventq_index=0
leaders=
possible_states=

[board.cache_hierarchy.l2buses.snoop_filter]
type=SnoopFilter
eventq_index=0
lookup_latency=0
max_capacity=8388608
system=board

[board.cache_hierarchy.l2caches]
type=Cache
children=power_state replacement_policy tags
addr_ranges=0:18446744073709551615
assoc=16
clk_domain=board.clk_domain
clusivity=mostly_incl
compressor=Null
data_latency=14
demand_mshr_reserve=16.0
eventq_index=0
is_read_only=false
max_miss_count=0
move_contractions=true
mshrs=32
partitioning_manager=Null
power_model=
power_state=board.cache_hierarchy.l2caches.power_state
prefetcher=Null
replace_expansions=true
replacement_policy=board.cache_hierarchy.l2caches.replacement_policy
response_latency=1
sequential_access=false
size=1048576
system=board
tag_latency=14
tags=board.cache_hierarchy.l2caches.tags
tgts_per_mshr=16
warmup_percentage=0
write_allocator=Null
write_buffers=32
writeback_clean=false
cpu_side=board.cache_hierarchy.l2buses.mem_side_ports[0]
mem_side=board.cache_hierarchy.llcXbar.cpu_side_ports[0]

[board.cache_hierarchy.l2caches.power_state]
type=PowerState
clk_gate_bins=20
clk_gate_max=1000000000000
clk_gate_min=1000
default_state=UNDEFINED
eventq_index=0
leaders=
possible_states=

[board.cache_hierarchy.l2caches.replacement_policy]
type=LRURP
eventq_index=0

[board.cache_hierarchy.l2caches.tags]
type=BaseSetAssoc
children=indexing_policy power_state
assoc=16
block_size=64
clk_domain=board.clk_domain
entry_size=64
eventq_index=0
indexing_policy=board.cache_hierarchy.l2caches.tags.indexing_policy
partitioning_manager=Null
power_model=
power_state=board.cache_hierarchy.l2caches.tags.power_state
replacement_policy=board.cache_hierarchy.l2caches.replacement_policy
sequential_access=false
size=1048576
system=board
tag_latency=14
warmup_percentage=0

[board.cache_hierarchy.l2caches.tags.indexing_policy]
type=TaggedSetAssociative
assoc=16
entry_size=64
eventq_index=0
size=1048576

[board.cache_hierarchy.l2caches.tags.power_state]
type=PowerState
clk_gate_bins=20
clk_gate_max=1000000000000
clk_gate_min=1000
default_state=UNDEFINED
eventq_index=0
leaders=
possible_states=

[board.cache_hierarchy.llcXbar]
type=CoherentXBar
children=power_state snoop_filter
clk_domain=board.clk_domain
eventq_index=0
forward_latency=0
frontend_latency=1
header_latency=1
max_outstanding_snoops=512
max_routing_table_size=512
point_of_coherency=false
point_of_unification=true
power_model=
power_state=board.cache_hierarchy.llcXbar.power_state
response_latency=1
snoop_filter=board.cache_hierarchy.llcXbar.snoop_filter
snoop_response_latency=1
system=board
use_default_range=false
width=192
cpu_side_ports=board.cache_hierarchy.l2caches.mem_side
mem_side_ports=board.cache_hierarchy.llcache.cpu_side

[board.cache_hierarchy.llcXbar.power_state]
type=PowerState
clk_gate_bins=20
clk_gate_max=1000000000000
clk_gate_min=1000
default_state=UNDEFINED
eventq_index=0
leaders=
possible_states=

[board.cache_hierarchy.llcXbar.snoop_filter]
type=SnoopFilter
eventq_index=0
lookup_latency=1
max_capacity=33554432
system=board

[board.cache_hierarchy.llcache]
type=Cache
children=power_state replacement_policy tags
addr_ranges=0:18446744073709551615
assoc=16
clk_domain=board.clk_domain
clusivity=mostly_incl
compressor=Null
data_latency=44
demand_mshr_reserve=128.0
eventq_index=0
is_read_only=false
max_miss_count=0
move_contractions=true
mshrs=256
partitioning_manager=Null
power_model=
power_state=board.cache_hierarchy.llcache.power_state
prefetcher=Null
replace_expansions=true
replacement_policy=board.cache_hierarchy.llcache.replacement_policy
response_latency=1
sequential_access=false
size=8388608
system=board
tag_latency=44
tags=board.cache_hierarchy.llcache.tags
tgts_per_mshr=32
warmup_percentage=0
write_allocator=Null
write_buffers=128
writeback_clean=false
cpu_side=board.cache_hierarchy.llcXbar.mem_side_ports[0]
mem_side=board.cache_hierarchy.membus.cpu_side_ports[2]

[board.cache_hierarchy.llcache.power_state]
type=PowerState
clk_gate_bins=20
clk_gate_max=1000000000000
clk_gate_min=1000
default_state=UNDEFINED
eventq_index=0
leaders=
possible_states=

[board.cache_hierarchy.llcache.replacement_policy]
type=LRURP
eventq_index=0

[board.cache_hierarchy.llcache.tags]
type=BaseSetAssoc
children=indexing_policy power_state
assoc=16
block_size=64
clk_domain=board.clk_domain
entry_size=64
eventq_index=0
indexing_policy=board.cache_hierarchy.llcache.tags.indexing_policy
partitioning_manager=Null
power_model=
power_state=board.cache_hierarchy.llcache.tags.power_state
replacement_policy=board.cache_hierarchy.llcache.replacement_policy
sequential_access=false
size=8388608
system=board
tag_latency=44
warmup_percentage=0

[board.cache_hierarchy.llcache.tags.indexing_policy]
type=TaggedSetAssociative
assoc=16
entry_size=64
eventq_index=0
size=8388608

[board.cache_hierarchy.llcache.tags.power_state]
type=PowerState
clk_gate_bins=20
clk_gate_max=1000000000000
clk_gate_min=1000
default_state=UNDEFINED
eventq_index=0
leaders=
possible_states=

[board.cache_hierarchy.membus]
type=CoherentXBar
children=badaddr_responder power_state snoop_filter
clk_domain=board.clk_domain
eventq_index=0
forward_latency=4
frontend_latency=3
header_latency=1
max_outstanding_snoops=512
max_routing_table_size=512
point_of_coherency=true
point_of_unification=true
power_model=
power_state=board.cache_hierarchy.membus.power_state
response_latency=2
snoop_filter=board.cache_hierarchy.membus.snoop_filter
snoop_response_latency=4
system=board
use_default_range=false
width=192
cpu_side_ports=board.system_port board.processor.start.core.interrupts.int_requestor board.cache_hierarchy.llcache.mem_side
default=board.cache_hierarchy.membus.badaddr_responder.pio
mem_side_ports=board.memory.mem_ctrl0.port board.memory.mem_ctrl1.port board.processor.start.core.interrupts.pio board.processor.start.core.interrupts.int_responder

[board.cache_hierarchy.membus.badaddr_responder]
type=IsaFake
children=power_state
clk_domain=board.clk_domain
eventq_index=0
fake_mem=false
pio_addr=0
pio_latency=100000
pio_size=8
power_model=
power_state=board.cache_hierarchy.membus.badaddr_responder.power_state
ret_bad_addr=true
ret_data16=65535
ret_data32=4294967295
ret_data64=18446744073709551615
ret_data8=255
system=board
update_data=false
warn_access=
pio=board.cache_hierarchy.membus.default

[board.cache_hierarchy.membus.badaddr_responder.power_state]
type=PowerState
clk_gate_bins=20
clk_gate_max=1000000000000
clk_gate_min=1000
default_state=UNDEFINED
eventq_index=0
leaders=
possible_states=

[board.cache_hierarchy.membus.power_state]
type=PowerState
clk_gate_bins=20
clk_gate_max=1000000000000
clk_gate_min=1000
default_state=UNDEFINED
eventq_index=0
leaders=
possible_states=

[board.cache_hierarchy.membus.snoop_filter]
type=SnoopFilter
eventq_index=0
lookup_latency=1
max_capacity=8388608
system=board

[board.clk_domain]
type=SrcClockDomain
children=voltage_domain
clock=250
domain_id=-1
eventq_index=0
init_perf_level=0
voltage_domain=board.clk_domain.voltage_domain

[board.clk_domain.voltage_domain]
type=VoltageDomain
eventq_index=0
voltage=1.0

[board.dvfs_handler]
type=DVFSHandler
domains=
enable=false
eventq_index=0
sys_clk_domain=board.clk_domain
transition_latency=100000000

[board.memory]
type=SubSystem
children=mem_ctrl0 mem_ctrl1
eventq_index=0
thermal_domain=Null

[board.memory.mem_ctrl0]
type=MemCtrl
children=dram power_state
clk_domain=board.clk_domain
command_window=10000
disable_sanity_check=false
dram=board.memory.mem_ctrl0.dram
eventq_index=0
mem_sched_policy=frfcfs
min_reads_per_switch=16
min_writes_per_switch=16
power_model=
power_state=board.memory.mem_ctrl0.power_state
qos_policy=Null
qos_priorities=1
qos_priority_escalation=false
qos_q_policy=fifo
qos_requestors=               
qos_syncro_scheduler=false
qos_turnaround_policy=Null
static_backend_latency=10000
static_frontend_latency=10000
system=board
write_high_thresh_perc=85
write_low_thresh_perc=50
port=board.cache_hierarchy.membus.mem_side_ports[0]

[board.memory.mem_ctrl0.dram]
type=DRAMInterface
children=power_state
IDD0=0.048
IDD02=0.003
IDD2N=0.034
IDD2N2=0.0
IDD2P0=0.0
IDD2P02=0.0
IDD2P1=0.025
IDD2P12=0.0
IDD3N=0.043000000000000003
IDD3N2=0.003
IDD3P0=0.0
IDD3P02=0.0
IDD3P1=0.037
IDD3P12=0.0
IDD4R=0.135
IDD4R2=0.0
IDD4W=0.123
IDD4W2=0.0
IDD5=0.25
IDD52=0.0
IDD6=0.03
IDD62=0.0
VDD=1.2
VDD2=2.5
activation_limit=4
addr_mapping=RoRaBaCoCh
bank_groups_per_rank=4
banks_per_rank=16
beats_per_clock=2
burst_length=8
clk_domain=board.clk_domain
collect_stats=true
conf_table_reported=true
data_clock_sync=false
device_bus_width=8
device_rowbuffer_size=1024
device_size=1073741824
devices_per_rank=8
dll=true
enable_dram_powerdown=false
eventq_index=0
image_file=
in_addr_map=true
kvm_map=true
max_accesses_per_row=16
null=false
page_policy=open_adaptive
power_model=
power_state=board.memory.mem_ctrl0.dram.power_state
range=0:3221225472:0:64
ranks_per_channel=2
read_buffer_size=64
tAAD=833
tBURST=3332
tBURST_MAX=3332
tBURST_MIN=3332
tCCD_L=5000
tCCD_L_WR=5000
tCK=833
tCL=14160
tCS=1666
tCWL=14160
tPPD=0
tRAS=32000
tRCD=14160
tRCD_WR=14160
tREFI=7800000
tRFC=350000
tRP=14160
tRRD=3332
tRRD_L=4900
tRTP=7500
tRTW=1666
tWR=15000
tWTR=5000
tWTR_L=5000
tXAW=21000
tXP=6000
tXPDLL=0
tXS=340000
tXSDLL=0
two_cycle_activate=false
write_buffer_size=128
writeable=true

[board.memory.mem_ctrl0.dram.power_state]
type=PowerState
clk_gate_bins=20
clk_gate_max=1000000000000
clk_gate_min=1000
default_state=UNDEFINED
eventq_index=0
leaders=
possible_states=

[board.memory.mem_ctrl0.power_state]
type=PowerState
clk_gate_bins=20
clk_gate_max=1000000000000
clk_gate_min=1000
default_state=UNDEFINED
eventq_index=0
leaders=
possible_states=

[board.memory.mem_ctrl1]
type=MemCtrl
children=dram power_state
clk_domain=board.clk_domain
command_window=10000
disable_sanity_check=false
dram=board.memory.mem_ctrl1.dram
eventq_index=0
mem_sched_policy=frfcfs
min_reads_per_switch=16
min_writes_per_switch=16
power_model=
power_state=board.memory.mem_ctrl1.power_state
qos_policy=Null
qos_priorities=1
qos_priority_escalation=false
qos_q_policy=fifo
qos_requestors=               
qos_syncro_scheduler=false
qos_turnaround_policy=Null
static_backend_latency=10000
static_frontend_latency=10000
system=board
write_high_thresh_perc=85
write_low_thresh_perc=50
port=board.cache_hierarchy.membus.mem_side_ports[1]

[board.memory.mem_ctrl1.dram]
type=DRAMInterface
children=power_state
IDD0=0.048
IDD02=0.003
IDD2N=0.034
IDD2N2=0.0
IDD2P0=0.0
IDD2P02=0.0
IDD2P1=0.025
IDD2P12=0.0
IDD3N=0.043000000000000003
IDD3N2=0.003
IDD3P0=0.0
IDD3P02=0.0
IDD3P1=0.037
IDD3P12=0.0
IDD4R=0.135
IDD4R2=0.0
IDD4W=0.123
IDD4W2=0.0
IDD5=0.25
IDD52=0.0
IDD6=0.03
IDD62=0.0
VDD=1.2
VDD2=2.5
activation_limit=4
addr_mapping=RoRaBaCoCh
bank_groups_per_rank=4
banks_per_rank=16
beats_per_clock=2
burst_length=8
clk_domain=board.clk_domain
collect_stats=true
conf_table_reported=true
data_clock_sync=false
device_bus_width=8
device_rowbuffer_size=1024
device_size=1073741824
devices_per_rank=8
dll=true
enable_dram_powerdown=false
eventq_index=0
image_file=
in_addr_map=true
kvm_map=true
max_accesses_per_row=16
null=false
page_policy=open_adaptive
power_model=
power_state=board.memory.mem_ctrl1.dram.power_state
range=0:3221225472:1:64
ranks_per_channel=2
read_buffer_size=64
tAAD=833
tBURST=3332
tBURST_MAX=3332
tBURST_MIN=3332
tCCD_L=5000
tCCD_L_WR=5000
tCK=833
tCL=14160
tCS=1666
tCWL=14160
tPPD=0
tRAS=32000
tRCD=14160
tRCD_WR=14160
tREFI=7800000
tRFC=350000
tRP=14160
tRRD=3332
tRRD_L=4900
tRTP=7500
tRTW=1666
tWR=15000
tWTR=5000
tWTR_L=5000
tXAW=21000
tXP=6000
tXPDLL=0
tXS=340000
tXSDLL=0
two_cycle_activate=false
write_buffer_size=128
writeable=true

[board.memory.mem_ctrl1.dram.power_state]
type=PowerState
clk_gate_bins=20
clk_gate_max=1000000000000
clk_gate_min=1000
default_state=UNDEFINED
eventq_index=0
leaders=
possible_states=

[board.memory.mem_ctrl1.power_state]
type=PowerState
clk_gate_bins=20
clk_gate_max=1000000000000
clk_gate_min=1000
default_state=UNDEFINED
eventq_index=0
leaders=
possible_states=

[board.processor]
type=SubSystem
children=kvm_vm start switch
eventq_index=0
thermal_domain=Null

[board.processor.kvm_vm]
type=KvmVM
coalescedMMIO=
eventq_index=0
system=board

[board.processor.start]
type=SubSystem
children=core
eventq_index=0
thermal_domain=Null

[board.processor.start.core]
type=X86KvmCPU
children=decoder interrupts isa mmu power_state tracer workload
alwaysSyncTC=false
checker=Null
clk_domain=board.clk_domain
cpu_id=0
decoder=board.processor.start.core.decoder
do_checkpoint_insts=true
do_statistics_insts=true
eventq_index=1
function_trace=false
function_trace_start=0
hostFactor=1.0
hostFreq=500
interrupts=board.processor.start.core.interrupts
isa=board.processor.start.core.isa
max_insts_all_threads=0
max_insts_any_thread=10000000000
mmu=board.processor.start.core.mmu
numThreads=1
power_gating_on_idle=false
power_model=
power_state=board.processor.start.core.power_state
progress_interval=0
pwr_gating_latency=300
simpoint_start_insts=
socket_id=0
switched_out=false
syscallRetryLatency=10000
system=board
tracer=board.processor.start.core.tracer
useCoalescedMMIO=false
usePerf=true
usePerfOverflow=false
useXSave=true
workload=board.processor.start.core.workload
dcache_port=board.cache_hierarchy.l1dcaches.cpu_side
icache_port=board.cache_hierarchy.l1icaches.cpu_side

[board.processor.start.core.decoder]
type=X86Decoder
eventq_index=0
isa=board.processor.start.core.isa

[board.processor.start.core.interrupts]
type=X86LocalApic
children=clk_domain
clk_domain=board.processor.start.core.interrupts.clk_domain
eventq_index=0
int_latency=1000
pio_latency=100000
system=board
int_requestor=board.cache_hierarchy.membus.cpu_side_ports[1]
int_responder=board.cache_hierarchy.membus.mem_side_ports[3]
pio=board.cache_hierarchy.membus.mem_side_ports[2]

[board.processor.start.core.interrupts.clk_domain]
type=DerivedClockDomain
clk_divider=16
clk_domain=board.clk_domain
eventq_index=0

[board.processor.start.core.isa]
type=X86ISA
APMInfo=2147483672 1752462657 1769238117 1145913699
CacheParams=0 0 0 0
ExtendedFeatures=0 25165824 0 0
ExtendedState=0 0 0 0 0 0 0 0
FamilyModelStepping=134993 2053 4024171519 521
FamilyModelSteppingBrandFeatures=134993 1029 3956538367 131073
L1CacheAndTLB=4278779656 4280352544 1073873216 1073873216
L2L3CacheAndL2TLB=0 1107313152 0 67141952
LongModeAddressSize=12336 0 0 0
eventq_index=0
name_string=Fake gem5 x86_64 CPU
vendor_string=HygonGenuine

[board.processor.start.core.mmu]
type=X86MMU
children=dtb itb
dtb=board.processor.start.core.mmu.dtb
eventq_index=0
itb=board.processor.start.core.mmu.itb

[board.processor.start.core.mmu.dtb]
type=X86TLB
children=walker
entry_type=data
eventq_index=0
next_level=Null
size=64
system=board
walker=board.processor.start.core.mmu.dtb.walker

[board.processor.start.core.mmu.dtb.walker]
type=X86PagetableWalker
children=power_state
clk_domain=board.clk_domain
eventq_index=0
num_squash_per_cycle=4
power_model=
power_state=board.processor.start.core.mmu.dtb.walker.power_state
system=board
port=board.cache_hierarchy.dptw_caches.cpu_side

[board.processor.start.core.mmu.dtb.walker.power_state]
type=PowerState
clk_gate_bins=20
clk_gate_max=1000000000000
clk_gate_min=1000
default_state=UNDEFINED
eventq_index=0
leaders=
possible_states=

[board.processor.start.core.mmu.itb]
type=X86TLB
children=walker
entry_type=instruction
eventq_index=0
next_level=Null
size=64
system=board
walker=board.processor.start.core.mmu.itb.walker

[board.processor.start.core.mmu.itb.walker]
type=X86PagetableWalker
children=power_state
clk_domain=board.clk_domain
eventq_index=0
num_squash_per_cycle=4
power_model=
power_state=board.processor.start.core.mmu.itb.walker.power_state
system=board
port=board.cache_hierarchy.iptw_caches.cpu_side

[board.processor.start.core.mmu.itb.walker.power_state]
type=PowerState
clk_gate_bins=20
clk_gate_max=1000000000000
clk_gate_min=1000
default_state=UNDEFINED
eventq_index=0
leaders=
possible_states=

[board.processor.start.core.power_state]
type=PowerState
clk_gate_bins=20
clk_gate_max=1000000000000
clk_gate_min=1000
default_state=UNDEFINED
eventq_index=0
leaders=
possible_states=ON CLK_GATED OFF

[board.processor.start.core.tracer]
type=ExeTracer
children=disassembler
disassembler=board.processor.start.core.tracer.disassembler
eventq_index=0

[board.processor.start.core.tracer.disassembler]
type=InstDisassembler
eventq_index=0

[board.processor.start.core.workload]
type=Process
cmd=/projects/coursework/2026-spring/cs395t-lin/rao/gem5/../gem5-configs-395t/483.xalancbmk/Xalan_base.amd64-m64-gcc42-nn -v /projects/coursework/2026-spring/cs395t-lin/rao/gem5/../gem5-configs-395t/483.xalancbmk/t5.xml /projects/coursework/2026-spring/cs395t-lin/rao/gem5/../gem5-configs-395t/483.xalancbmk/xalanc.xsl
cwd=/v/filer5b/coursework/2026-spring/cs395t-lin/rao/gem5-configs-395t/483.xalancbmk
drivers=
egid=100
env=
errout=cerr
euid=100
eventq_index=0
executable=/projects/coursework/2026-spring/cs395t-lin/rao/gem5/../gem5-configs-395t/483.xalancbmk/Xalan_base.amd64-m64-gcc42-nn
gid=100
input=cin
kvmInSE=true
maxStackSize=67108864
output=cout
pgid=100
pid=100
ppid=0
release=5.1.0
simpoint=0
system=board
uid=100
useArchPT=true
zeroPages=true

[board.processor.switch]
type=SubSystem
children=core
eventq_index=0
thermal_domain=Null

[board.processor.switch.core]
type=BaseO3CPU
children=SSITIndexingPolicy SSITReplPolicy branchPred decoder fuPool instQueues isa mmu power_state tracer
LFSTSize=1024
LQEntries=72
LSQCheckLoads=true
LSQDepCheckShift=4
SQEntries=56
SSITAssoc=1
SSITIndexingPolicy=board.processor.switch.core.SSITIndexingPolicy
SSITReplPolicy=board.processor.switch.core.SSITReplPolicy
SSITSize=1024
activity=0
bacToFetchDelay=1
backComSize=19
branchPred=board.processor.switch.core.branchPred
cacheLoadPorts=200
cacheStorePorts=200
checker=Null
clk_domain=board.clk_domain
commitToDecodeDelay=1
commitToFetchDelay=1
commitToIEWDelay=1
commitToRenameDelay=1
commitWidth=8
cpu_id=0
decodeToFetchDelay=1
decodeToRenameDelay=1
decodeWidth=4
decoder=board.processor.switch.core.decoder
decoupledFrontEnd=false
dispatchWidth=8
do_checkpoint_insts=true
do_statistics_insts=true
eventq_index=0
fetchBufferSize=16
fetchQueueSize=50
fetchTargetWidth=32
fetchToBacDelay=1
fetchToDecodeDelay=3
fetchTrapLatency=1
fetchWidth=4
forwardComSize=19
function_trace=false
function_trace_start=0
iewToCommitDelay=6
iewToDecodeDelay=1
iewToFetchDelay=1
iewToRenameDelay=1
instQueues=board.processor.switch.core.instQueues
interrupts=
isa=board.processor.switch.core.isa
issueToExecuteDelay=1
issueWidth=8
maxFTPerCycle=4
maxTakenPredPerCycle=1
max_insts_all_threads=0
max_insts_any_thread=0
minInstSize=1
mmu=board.processor.switch.core.mmu
needsTSO=true
numFTQEntries=8
numPhysCCRegs=900
numPhysFloatRegs=168
numPhysIntRegs=180
numPhysMatRegs=2
numPhysVecPredRegs=32
numPhysVecRegs=256
numROBEntries=224
numRobs=1
numThreads=1